data_image0
_chemical_formula_structural       H24C20O6S2
_chemical_formula_sum              "H24 C20 O6 S2"
_cell_length_a       3.94065
_cell_length_b       10.8821
_cell_length_c       12.1897
_cell_angle_alpha    78.2042
_cell_angle_beta     90.4306
_cell_angle_gamma    85.7905

_space_group_name_H-M_alt    "P 1"
_space_group_IT_number       1

loop_
  _space_group_symop_operation_xyz
  'x, y, z'

loop_
  _atom_site_type_symbol
  _atom_site_label
  _atom_site_symmetry_multiplicity
  _atom_site_fract_x
  _atom_site_fract_y
  _atom_site_fract_z
  _atom_site_occupancy
  H   H1        1.0  0.42733  0.34277  0.85575  1.0000
  H   H2        1.0  0.05569  0.18516  0.97082  1.0000
  H   H3        1.0  0.47301  0.17193  0.02474  1.0000
  H   H4        1.0  0.48561  0.41004  0.97424  1.0000
  H   H5        1.0  0.07643  0.42074  0.91176  1.0000
  H   H6        1.0  0.92357  0.57926  0.08824  1.0000
  H   H7        1.0  0.27814  0.02956  0.55835  1.0000
  H   H8        1.0  0.13949  0.25988  0.58485  1.0000
  H   H9        1.0  0.60331  0.54051  0.64740  1.0000
  H   H10       1.0  0.20495  0.47182  0.67628  1.0000
  H   H11       1.0  0.26692  0.57543  0.54428  1.0000
  H   H12       1.0  0.12584  0.68176  0.88753  1.0000
  H   H13       1.0  0.70916  0.69505  0.83669  1.0000
  H   H14       1.0  0.94431  0.81484  0.02918  1.0000
  H   H15       1.0  0.52699  0.82807  0.97526  1.0000
  H   H16       1.0  0.51439  0.58996  0.02576  1.0000
  H   H17       1.0  0.29084  0.30495  0.16331  1.0000
  H   H18       1.0  0.87416  0.31824  0.11247  1.0000
  H   H19       1.0  0.57267  0.65723  0.14425  1.0000
  H   H20       1.0  0.79505  0.52818  0.32372  1.0000
  H   H21       1.0  0.39669  0.45949  0.35260  1.0000
  H   H22       1.0  0.86051  0.74012  0.41515  1.0000
  H   H23       1.0  0.72186  0.97044  0.44165  1.0000
  H   H24       1.0  0.73308  0.42457  0.45572  1.0000
  C   C1        1.0  0.99021  0.91289  0.30415  1.0000
  C   C2        1.0  0.67258  0.44516  0.36550  1.0000
  C   C3        1.0  0.68992  0.64130  0.06669  1.0000
  C   C4        1.0  0.76135  0.76511  0.98914  1.0000
  C   C5        1.0  0.89271  0.74531  0.87557  1.0000
  C   C6        1.0  0.32742  0.55484  0.63450  1.0000
  C   C7        1.0  0.84623  0.99795  0.36214  1.0000
  C   C8        1.0  0.27232  0.77219  0.63653  1.0000
  C   C9        1.0  0.00386  0.22467  0.66321  1.0000
  C   C10       1.0  0.99614  0.77533  0.33679  1.0000
  C   C11       1.0  0.00979  0.08711  0.69585  1.0000
  C   C12       1.0  0.15377  0.00205  0.63786  1.0000
  C   C13       1.0  0.12553  0.87436  0.69115  1.0000
  C   C14       1.0  0.96090  0.86337  0.79265  1.0000
  C   C15       1.0  0.03910  0.13663  0.20735  1.0000
  C   C16       1.0  0.10729  0.25469  0.12443  1.0000
  C   C17       1.0  0.23865  0.23489  0.01086  1.0000
  C   C18       1.0  0.31008  0.35870  0.93331  1.0000
  C   C19       1.0  0.87447  0.12564  0.30885  1.0000
  C   C20       1.0  0.72768  0.22781  0.36347  1.0000
  O   O1        1.0  0.19108  0.65654  0.68457  1.0000
  O   O2        1.0  0.54705  0.20728  0.44454  1.0000
  O   O3        1.0  0.80892  0.34346  0.31543  1.0000
  O   O4        1.0  0.45295  0.79272  0.55546  1.0000
  O   O5        1.0  0.86379  0.29667  0.71567  1.0000
  O   O6        1.0  0.13621  0.70333  0.28433  1.0000
  S   S1        1.0  0.82922  0.01076  0.81647  1.0000
  S   S2        1.0  0.17078  0.98924  0.18353  1.0000

