# generated using pymatgen
data_GeF2
_symmetry_space_group_name_H-M   P2_12_12_1
_cell_length_a   4.97134300
_cell_length_b   5.23964400
_cell_length_c   8.24597100
_cell_angle_alpha   90.00000000
_cell_angle_beta   90.00000000
_cell_angle_gamma   90.00000000
_symmetry_Int_Tables_number   19
_chemical_formula_structural   GeF2
_chemical_formula_sum   'Ge4 F8'
_cell_volume   214.79160939
_cell_formula_units_Z   4
loop_
 _symmetry_equiv_pos_site_id
 _symmetry_equiv_pos_as_xyz
  1  'x, y, z'
  2  '-x+1/2, -y, z+1/2'
  3  'x+1/2, -y+1/2, -z'
  4  '-x, y+1/2, -z+1/2'
loop_
 _atom_site_type_symbol
 _atom_site_label
 _atom_site_symmetry_multiplicity
 _atom_site_fract_x
 _atom_site_fract_y
 _atom_site_fract_z
 _atom_site_occupancy
  Ge  Ge0  4  0.22608000  0.02532300  0.12401500  1
  F  F1  4  0.03444500  0.62701000  0.53073100  1
  F  F2  4  0.09464500  0.25380100  0.28527400  1
