# generated using pymatgen
data_NbO2
_symmetry_space_group_name_H-M   I4_1/a
_cell_length_a   9.80017200
_cell_length_b   9.80017200
_cell_length_c   6.08831200
_cell_angle_alpha   90.00000000
_cell_angle_beta   90.00000000
_cell_angle_gamma   90.00000000
_symmetry_Int_Tables_number   88
_chemical_formula_structural   NbO2
_chemical_formula_sum   'Nb16 O32'
_cell_volume   584.74200958
_cell_formula_units_Z   16
loop_
 _symmetry_equiv_pos_site_id
 _symmetry_equiv_pos_as_xyz
  1  'x, y, z'
  2  '-y+1/2, x, z+3/4'
  3  '-x, -y, z'
  4  'y+1/2, -x, z+3/4'
  5  '-x+1/2, -y, -z+3/4'
  6  'y, -x, -z'
  7  'x+1/2, y, -z+3/4'
  8  '-y, x, -z'
  9  'x+1/2, y+1/2, z+1/2'
  10  '-y, x+1/2, z+1/4'
  11  '-x+1/2, -y+1/2, z+1/2'
  12  'y, -x+1/2, z+1/4'
  13  '-x, -y+1/2, -z+1/4'
  14  'y+1/2, -x+1/2, -z+1/2'
  15  'x, y+1/2, -z+1/4'
  16  '-y+1/2, x+1/2, -z+1/2'
loop_
 _atom_site_type_symbol
 _atom_site_label
 _atom_site_symmetry_multiplicity
 _atom_site_fract_x
 _atom_site_fract_y
 _atom_site_fract_z
 _atom_site_occupancy
  Nb  Nb0  16  0.01353150  0.24283950  0.84862150  1
  O  O1  16  0.10418550  0.34800750  0.13414850  1
  O  O2  16  0.10688600  0.36493400  0.60970500  1
